REMARK SMILES CCn1ncc(C(=O)N2C[C@H]3CCN(C(=O)[C@@]4(C)C=CCC4)C[C@H]32)n1
REMARK SMILES IDX 9 1 10 2 11 3 12 4 13 5 14 6 23 7 24 8 7 9 8 10 6 11 3 12
REMARK SMILES IDX 4 13 25 14 5 15 2 16 1 17 15 18 16 19 17 20 19 21 22 22
REMARK SMILES IDX 20 23 21 24 18 25
REMARK H PARENT
ROOT
ATOM      1  N   UNL     1       1.822  -0.353   0.474  1.00  0.00    -0.332 N 
ATOM      2  C   UNL     1       2.141   0.896  -0.185  1.00  0.00     0.126 C 
ATOM      3  C   UNL     1       0.749   1.396   0.229  1.00  0.00     0.035 C 
ATOM      4  C   UNL     1      -0.258   1.682  -0.876  1.00  0.00     0.029 C 
ATOM      5  C   UNL     1      -1.655   1.397  -0.324  1.00  0.00     0.120 C 
ATOM      6  N   UNL     1      -1.825   0.016   0.151  1.00  0.00    -0.340 N 
ATOM      7  C   UNL     1      -0.607  -0.810   0.277  1.00  0.00     0.145 C 
ATOM      8  C   UNL     1       0.488   0.041   0.909  1.00  0.00     0.110 C 
ENDROOT
BRANCH   1   9
ATOM      9  C   UNL     1       2.584  -1.402   0.928  1.00  0.00     0.276 C 
ATOM     10  O   UNL     1       2.112  -2.242   1.696  1.00  0.00    -0.267 OA
BRANCH   9  11
ATOM     11  C   UNL     1       3.970  -1.502   0.465  1.00  0.00     0.170 A 
ATOM     12  N   UNL     1       5.808  -1.216  -0.503  1.00  0.00    -0.184 N 
ATOM     13  N   UNL     1       6.077  -2.297   0.249  1.00  0.00    -0.161 NA
ATOM     14  N   UNL     1       4.573  -0.682  -0.421  1.00  0.00    -0.148 NA
ATOM     15  C   UNL     1       4.905  -2.486   0.862  1.00  0.00     0.171 A 
BRANCH  12  16
ATOM     16  C   UNL     1       6.820  -0.633  -1.361  1.00  0.00     0.164 C 
ATOM     17  C   UNL     1       7.606   0.457  -0.656  1.00  0.00     0.031 C 
ENDBRANCH  12  16
ENDBRANCH   9  11
ENDBRANCH   1   9
BRANCH   6  18
ATOM     18  C   UNL     1      -3.048  -0.611   0.408  1.00  0.00     0.232 C 
ATOM     19  O   UNL     1      -3.059  -1.800   0.751  1.00  0.00    -0.274 OA
BRANCH  18  20
ATOM     20  C   UNL     1      -4.400   0.161   0.251  1.00  0.00     0.065 C 
ATOM     21  C   UNL     1      -4.783   0.332  -1.203  1.00  0.00    -0.015 C 
ATOM     22  C   UNL     1      -5.589  -0.730   0.733  1.00  0.00     0.025 C 
ATOM     23  C   UNL     1      -6.060   0.013  -1.445  1.00  0.00    -0.030 C 
ATOM     24  C   UNL     1      -6.757  -0.445  -0.212  1.00  0.00     0.028 C 
ATOM     25  C   UNL     1      -4.443   1.486   1.024  1.00  0.00     0.026 C 
ENDBRANCH  18  20
ENDBRANCH   6  18
TORSDOF 5
