
     RDKit          3D

 50 53  0  0  0  0  0  0  0  0999 V2000
    7.6060    0.4568   -0.6556 C   0  0  0  0  0  0  0  0  0  0  0  0
    6.8201   -0.6327   -1.3614 C   0  0  0  0  0  0  0  0  0  0  0  0
    5.8083   -1.2160   -0.5032 N   0  0  0  0  0  0  0  0  0  0  0  0
    6.0772   -2.2972    0.2495 N   0  0  0  0  0  0  0  0  0  0  0  0
    4.9048   -2.4861    0.8616 C   0  0  0  0  0  0  0  0  0  0  0  0
    3.9705   -1.5023    0.4648 C   0  0  0  0  0  0  0  0  0  0  0  0
    2.5841   -1.4023    0.9285 C   0  0  0  0  0  0  0  0  0  0  0  0
    2.1116   -2.2416    1.6958 O   0  0  0  0  0  0  0  0  0  0  0  0
    1.8218   -0.3526    0.4744 N   0  0  0  0  0  0  0  0  0  0  0  0
    2.1413    0.8964   -0.1852 C   0  0  0  0  0  0  0  0  0  0  0  0
    0.7488    1.3958    0.2287 C   0  0  1  0  0  0  0  0  0  0  0  0
   -0.2583    1.6818   -0.8764 C   0  0  0  0  0  0  0  0  0  0  0  0
   -1.6552    1.3974   -0.3239 C   0  0  0  0  0  0  0  0  0  0  0  0
   -1.8245    0.0162    0.1508 N   0  0  0  0  0  0  0  0  0  0  0  0
   -3.0481   -0.6110    0.4084 C   0  0  0  0  0  0  0  0  0  0  0  0
   -3.0589   -1.7998    0.7508 O   0  0  0  0  0  0  0  0  0  0  0  0
   -4.3997    0.1607    0.2511 C   0  0  1  0  0  0  0  0  0  0  0  0
   -4.4430    1.4861    1.0237 C   0  0  0  0  0  0  0  0  0  0  0  0
   -4.7834    0.3324   -1.2033 C   0  0  0  0  0  0  0  0  0  0  0  0
   -6.0600    0.0129   -1.4452 C   0  0  0  0  0  0  0  0  0  0  0  0
   -6.7572   -0.4452   -0.2121 C   0  0  0  0  0  0  0  0  0  0  0  0
   -5.5891   -0.7300    0.7325 C   0  0  0  0  0  0  0  0  0  0  0  0
   -0.6070   -0.8102    0.2770 C   0  0  0  0  0  0  0  0  0  0  0  0
    0.4885    0.0406    0.9090 C   0  0  1  0  0  0  0  0  0  0  0  0
    4.5731   -0.6822   -0.4215 N   0  0  0  0  0  0  0  0  0  0  0  0
    6.9484    1.2702   -0.3314 H   0  0  0  0  0  0  0  0  0  0  0  0
    8.1144    0.0652    0.2317 H   0  0  0  0  0  0  0  0  0  0  0  0
    8.3622    0.8757   -1.3265 H   0  0  0  0  0  0  0  0  0  0  0  0
    7.4845   -1.4398   -1.6890 H   0  0  0  0  0  0  0  0  0  0  0  0
    6.3132   -0.2341   -2.2469 H   0  0  0  0  0  0  0  0  0  0  0  0
    4.7735   -3.3071    1.5539 H   0  0  0  0  0  0  0  0  0  0  0  0
    2.9668    1.4442    0.2779 H   0  0  0  0  0  0  0  0  0  0  0  0
    2.3065    0.7886   -1.2605 H   0  0  0  0  0  0  0  0  0  0  0  0
    0.7917    2.2204    0.9534 H   0  0  0  0  0  0  0  0  0  0  0  0
   -0.1802    2.7250   -1.2011 H   0  0  0  0  0  0  0  0  0  0  0  0
   -0.0745    1.0524   -1.7557 H   0  0  0  0  0  0  0  0  0  0  0  0
   -2.3959    1.6242   -1.0900 H   0  0  0  0  0  0  0  0  0  0  0  0
   -1.8334    2.0498    0.5374 H   0  0  0  0  0  0  0  0  0  0  0  0
   -5.4709    1.7830    1.2662 H   0  0  0  0  0  0  0  0  0  0  0  0
   -3.8942    1.4088    1.9687 H   0  0  0  0  0  0  0  0  0  0  0  0
   -4.0238    2.3181    0.4507 H   0  0  0  0  0  0  0  0  0  0  0  0
   -4.1132    0.6844   -1.9745 H   0  0  0  0  0  0  0  0  0  0  0  0
   -6.5407    0.0827   -2.4116 H   0  0  0  0  0  0  0  0  0  0  0  0
   -7.3495   -1.3475   -0.3891 H   0  0  0  0  0  0  0  0  0  0  0  0
   -7.4127    0.3421    0.1735 H   0  0  0  0  0  0  0  0  0  0  0  0
   -5.3611   -1.8016    0.6686 H   0  0  0  0  0  0  0  0  0  0  0  0
   -5.8634   -0.5400    1.7770 H   0  0  0  0  0  0  0  0  0  0  0  0
   -0.3445   -1.1395   -0.7361 H   0  0  0  0  0  0  0  0  0  0  0  0
   -0.7798   -1.7068    0.8799 H   0  0  0  0  0  0  0  0  0  0  0  0
    0.4048    0.1134    2.0003 H   0  0  0  0  0  0  0  0  0  0  0  0
  1  2  1  0
  2  3  1  0
  3  4  1  0
  4  5  2  0
  5  6  1  0
  6  7  1  0
  7  8  2  0
  7  9  1  0
  9 10  1  0
 10 11  1  0
 11 12  1  0
 12 13  1  0
 13 14  1  0
 14 15  1  0
 15 16  2  0
 15 17  1  0
 17 18  1  1
 17 19  1  0
 19 20  2  0
 20 21  1  0
 21 22  1  0
 14 23  1  0
 23 24  1  0
  6 25  2  0
 25  3  1  0
 24  9  1  0
 24 11  1  0
 22 17  1  0
  1 26  1  0
  1 27  1  0
  1 28  1  0
  2 29  1  0
  2 30  1  0
  5 31  1  0
 10 32  1  0
 10 33  1  0
 11 34  1  1
 12 35  1  0
 12 36  1  0
 13 37  1  0
 13 38  1  0
 18 39  1  0
 18 40  1  0
 18 41  1  0
 19 42  1  0
 20 43  1  0
 21 44  1  0
 21 45  1  0
 22 46  1  0
 22 47  1  0
 23 48  1  0
 23 49  1  0
 24 50  1  1
M  END
$$$$
